*SPEF "IEEE 1481-1998"
*DESIGN "uart_top"
*DATE "Thu Dec 28 13:14:43 2023"
*VENDOR "Cadence Design Systems, Inc."
*PROGRAM "Innovus"
*VERSION "17.12-s095_1"
*DESIGN_FLOW "COUPLING C" "PIN_CAP NONE" "NAME_SCOPE LOCAL"
*DIVIDER /
*DELIMITER :
*BUS_DELIMITER []
*T_UNIT 1 NS
*C_UNIT 1 PF
*R_UNIT 1 OHM
*L_UNIT 1 HENRY

// MMMC spef file for corner 'my_rc_corner_worst'

*NAME_MAP

*1 rtx/FE_OFN0_n_20
*2 clk
*3 rst
*4 rx
*5 newd
*6 dintx[7]
*7 dintx[6]
*8 dintx[5]
*9 dintx[4]
*10 dintx[3]
*11 dintx[2]
*12 dintx[1]
*13 dintx[0]
*14 tx
*15 donetx
*16 donerx
*17 doutrx[7]
*18 doutrx[6]
*19 doutrx[5]
*20 doutrx[4]
*21 doutrx[3]
*22 doutrx[2]
*23 doutrx[1]
*24 doutrx[0]
*25 clk1
*26 rtx/count[31]
*27 rtx/count[30]
*28 rtx/count[29]
*29 rtx/count[28]
*30 rtx/count[27]
*31 rtx/count[26]
*32 rtx/count[25]
*33 rtx/count[24]
*34 rtx/count[23]
*35 rtx/count[22]
*36 rtx/count[21]
*37 rtx/count[20]
*38 rtx/count[19]
*39 rtx/count[18]
*40 rtx/count[17]
*41 rtx/count[16]
*42 rtx/count[15]
*43 rtx/count[14]
*44 rtx/count[13]
*45 rtx/count[12]
*46 rtx/count[11]
*47 rtx/count[10]
*48 rtx/count[9]
*49 rtx/count[8]
*50 rtx/count[7]
*51 rtx/count[6]
*52 rtx/count[5]
*53 rtx/count[4]
*54 rtx/count[3]
*55 rtx/count[2]
*56 rtx/count[1]
*57 rtx/count[0]
*58 rtx/counts[31]
*59 rtx/counts[30]
*60 rtx/counts[29]
*61 rtx/counts[28]
*62 rtx/counts[27]
*63 rtx/counts[26]
*64 rtx/counts[25]
*65 rtx/counts[24]
*66 rtx/counts[23]
*67 rtx/counts[22]
*68 rtx/counts[21]
*69 rtx/counts[20]
*70 rtx/counts[19]
*71 rtx/counts[18]
*72 rtx/counts[17]
*73 rtx/counts[16]
*74 rtx/counts[15]
*75 rtx/counts[14]
*76 rtx/counts[13]
*77 rtx/counts[12]
*78 rtx/counts[11]
*79 rtx/counts[10]
*80 rtx/counts[9]
*81 rtx/counts[8]
*82 rtx/counts[7]
*83 rtx/counts[6]
*84 rtx/counts[5]
*85 rtx/counts[4]
*86 rtx/counts[3]
*87 rtx/counts[2]
*88 rtx/counts[1]
*89 rtx/counts[0]
*90 rtx/state[0]
*91 rtx/inc_add_153_24_n_317
*92 rtx/inc_add_153_24_n_318
*93 rtx/inc_add_153_24_n_320
*94 rtx/inc_add_153_24_n_323
*95 rtx/inc_add_153_24_n_328
*96 rtx/inc_add_153_24_n_330
*97 rtx/inc_add_153_24_n_332
*98 rtx/inc_add_153_24_n_335
*99 rtx/inc_add_153_24_n_338
*100 rtx/inc_add_153_24_n_343
*101 rtx/inc_add_153_24_n_345
*102 rtx/inc_add_153_24_n_347
*103 rtx/inc_add_153_24_n_349
*104 rtx/inc_add_153_24_n_355
*105 rtx/inc_add_153_24_n_357
*106 rtx/inc_add_153_24_n_360
*107 rtx/inc_add_153_24_n_362
*108 rtx/inc_add_153_24_n_363
*109 rtx/inc_add_153_24_n_367
*110 rtx/inc_add_153_24_n_369
*111 rtx/inc_add_153_24_n_372
*112 rtx/inc_add_153_24_n_373
*113 rtx/inc_add_153_24_n_376
*114 rtx/inc_add_153_24_n_378
*115 rtx/inc_add_153_24_n_379
*116 rtx/inc_add_153_24_n_381
*117 rtx/inc_add_153_24_n_382
*118 rtx/inc_add_153_24_n_383
*119 rtx/inc_add_153_24_n_387
*120 rtx/inc_add_153_24_n_388
*121 rtx/inc_add_153_24_n_392
*122 rtx/inc_add_153_24_n_395
*123 rtx/inc_add_153_24_n_400
*124 rtx/inc_add_153_24_n_402
*125 rtx/inc_add_153_24_n_405
*126 rtx/inc_add_153_24_n_408
*127 rtx/inc_add_153_24_n_409
*128 rtx/inc_add_153_24_n_410
*129 rtx/inc_add_153_24_n_412
*130 rtx/inc_add_153_24_n_415
*131 rtx/inc_add_153_24_n_416
*132 rtx/inc_add_153_24_n_419
*133 rtx/inc_add_153_24_n_429
*134 rtx/inc_add_153_24_n_437
*135 rtx/inc_add_153_24_n_445
*136 rtx/inc_add_190_23_n_223
*137 rtx/inc_add_190_23_n_226
*138 rtx/inc_add_190_23_n_229
*139 rtx/inc_add_190_23_n_231
*140 rtx/inc_add_190_23_n_233
*141 rtx/inc_add_190_23_n_235
*142 rtx/inc_add_190_23_n_237
*143 rtx/inc_add_190_23_n_239
*144 rtx/inc_add_190_23_n_241
*145 rtx/inc_add_190_23_n_243
*146 rtx/inc_add_190_23_n_245
*147 rtx/inc_add_190_23_n_247
*148 rtx/inc_add_190_23_n_249
*149 rtx/inc_add_190_23_n_251
*150 rtx/inc_add_190_23_n_253
*151 rtx/inc_add_190_23_n_255
*152 rtx/inc_add_190_23_n_257
*153 rtx/inc_add_190_23_n_259
*154 rtx/inc_add_190_23_n_261
*155 rtx/inc_add_190_23_n_263
*156 rtx/inc_add_190_23_n_265
*157 rtx/inc_add_190_23_n_267
*158 rtx/inc_add_190_23_n_269
*159 rtx/inc_add_190_23_n_271
*160 rtx/inc_add_190_23_n_273
*161 rtx/inc_add_190_23_n_275
*162 rtx/inc_add_190_23_n_277
*163 rtx/inc_add_190_23_n_279
*164 rtx/inc_add_190_23_n_281
*165 rtx/inc_add_190_23_n_283
*166 rtx/n_0
*167 rtx/n_1
*168 rtx/n_2
*169 rtx/n_3
*170 rtx/n_4
*171 rtx/n_5
*172 rtx/n_6
*173 rtx/n_7
*174 rtx/n_8
*175 rtx/n_9
*176 rtx/n_10
*177 rtx/n_11
*178 rtx/n_12
*179 rtx/n_13
*180 rtx/n_14
*181 rtx/n_15
*182 rtx/n_16
*183 rtx/n_18
*184 rtx/n_19
*185 rtx/n_20
*186 rtx/n_21
*187 rtx/n_22
*188 rtx/n_23
*189 rtx/n_26
*190 rtx/n_27
*191 rtx/n_28
*192 rtx/n_29
*193 rtx/n_31
*194 rtx/n_32
*195 rtx/n_33
*196 rtx/n_35
*197 rtx/n_36
*198 rtx/n_37
*199 rtx/n_39
*200 rtx/n_40
*201 rtx/n_41
*202 rtx/n_43
*203 rtx/n_44
*204 rtx/n_47
*205 rtx/n_48
*206 rtx/n_49
*207 rtx/n_50
*208 rtx/n_51
*209 rtx/n_52
*210 rtx/n_53
*211 rtx/n_54
*212 rtx/n_55
*213 rtx/n_56
*214 rtx/n_57
*215 rtx/n_58
*216 rtx/n_59
*217 rtx/n_60
*218 rtx/n_61
*219 rtx/n_62
*220 rtx/n_63
*221 rtx/n_64
*222 rtx/n_66
*223 rtx/n_67
*224 rtx/n_68
*225 rtx/n_69
*226 rtx/n_70
*227 rtx/n_71
*228 rtx/n_72
*229 rtx/n_73
*230 rtx/n_74
*231 rtx/n_75
*232 rtx/n_76
*233 rtx/n_77
*234 rtx/n_78
*235 rtx/n_79
*236 rtx/n_80
*237 rtx/n_81
*238 rtx/n_82
*239 rtx/n_83
*240 rtx/n_84
*241 rtx/n_85
*242 rtx/n_86
*243 rtx/n_87
*244 rtx/n_88
*245 rtx/n_89
*246 rtx/n_90
*247 rtx/n_91
*248 rtx/n_92
*249 rtx/n_93
*250 rtx/n_94
*251 rtx/n_95
*252 rtx/n_96
*253 rtx/n_97
*254 rtx/n_98
*255 rtx/n_99
*256 rtx/n_100
*257 rtx/n_101
*258 rtx/n_102
*259 rtx/n_103
*260 rtx/n_104
*261 rtx/n_105
*262 rtx/n_106
*263 rtx/n_107
*264 rtx/n_108
*265 rtx/n_109
*266 rtx/n_110
*267 rtx/n_111
*268 rtx/n_112
*269 rtx/n_113
*270 rtx/n_114
*271 rtx/n_115
*272 rtx/n_116
*273 rtx/n_117
*274 rtx/n_118
*275 rtx/n_119
*276 rtx/n_120
*277 rtx/n_121
*278 rtx/n_122
*279 rtx/n_123
*280 rtx/n_124
*281 rtx/n_125
*282 rtx/n_126
*283 rtx/n_127
*284 rtx/n_128
*285 rtx/n_129
*286 rtx/n_130
*287 rtx/n_131
*288 rtx/n_132
*289 rtx/n_133
*290 rtx/n_135
*291 rtx/n_137
*292 rtx/n_138
*293 rtx/n_139
*294 rtx/n_141
*295 rtx/n_143
*296 rtx/n_144
*297 rtx/n_145
*298 rtx/n_147
*299 rtx/n_148
*300 rtx/n_149
*301 rtx/n_151
*302 rtx/n_152
*303 rtx/n_153
*304 rtx/n_155
*305 rtx/n_156
*306 rtx/n_157
*307 rtx/n_159
*308 rtx/n_160
*309 rtx/n_161
*310 rtx/n_163
*311 rtx/n_164
*312 rtx/n_165
*313 rtx/n_167
*314 rtx/n_170
*315 rtx/n_171
*316 rtx/n_172
*317 rtx/n_173
*318 rtx/n_174
*319 rtx/n_175
*320 rtx/n_176
*321 rtx/n_177
*322 rtx/n_178
*323 rtx/n_179
*324 rtx/uclk
*325 utx/count[31]
*326 utx/count[30]
*327 utx/count[29]
*328 utx/count[28]
*329 utx/count[27]
*330 utx/count[26]
*331 utx/count[25]
*332 utx/count[24]
*333 utx/count[23]
*334 utx/count[22]
*335 utx/count[21]
*336 utx/count[20]
*337 utx/count[19]
*338 utx/count[18]
*339 utx/count[17]
*340 utx/count[16]
*341 utx/count[15]
*342 utx/count[14]
*343 utx/count[13]
*344 utx/count[12]
*345 utx/count[11]
*346 utx/count[10]
*347 utx/count[9]
*348 utx/count[8]
*349 utx/count[7]
*350 utx/count[6]
*351 utx/count[5]
*352 utx/count[4]
*353 utx/count[3]
*354 utx/count[2]
*355 utx/count[1]
*356 utx/count[0]
*357 utx/counts[31]
*358 utx/counts[30]
*359 utx/counts[29]
*360 utx/counts[28]
*361 utx/counts[27]
*362 utx/counts[26]
*363 utx/counts[25]
*364 utx/counts[24]
*365 utx/counts[23]
*366 utx/counts[22]
*367 utx/counts[21]
*368 utx/counts[20]
*369 utx/counts[19]
*370 utx/counts[18]
*371 utx/counts[17]
*372 utx/counts[16]
*373 utx/counts[15]
*374 utx/counts[14]
*375 utx/counts[13]
*376 utx/counts[12]
*377 utx/counts[11]
*378 utx/counts[10]
*379 utx/counts[9]
*380 utx/counts[8]
*381 utx/counts[7]
*382 utx/counts[6]
*383 utx/counts[5]
*384 utx/counts[4]
*385 utx/counts[3]
*386 utx/counts[2]
*387 utx/counts[1]
*388 utx/counts[0]
*389 utx/din[7]
*390 utx/din[6]
*391 utx/din[5]
*392 utx/din[4]
*393 utx/din[3]
*394 utx/din[2]
*395 utx/din[1]
*396 utx/din[0]
*397 utx/state[1]
*398 utx/inc_add_54_24_n_317
*399 utx/inc_add_54_24_n_318
*400 utx/inc_add_54_24_n_320
*401 utx/inc_add_54_24_n_323
*402 utx/inc_add_54_24_n_328
*403 utx/inc_add_54_24_n_330
*404 utx/inc_add_54_24_n_332
*405 utx/inc_add_54_24_n_335
*406 utx/inc_add_54_24_n_338
*407 utx/inc_add_54_24_n_343
*408 utx/inc_add_54_24_n_345
*409 utx/inc_add_54_24_n_347
*410 utx/inc_add_54_24_n_349
*411 utx/inc_add_54_24_n_355
*412 utx/inc_add_54_24_n_357
*413 utx/inc_add_54_24_n_360
*414 utx/inc_add_54_24_n_362
*415 utx/inc_add_54_24_n_363
*416 utx/inc_add_54_24_n_367
*417 utx/inc_add_54_24_n_369
*418 utx/inc_add_54_24_n_372
*419 utx/inc_add_54_24_n_373
*420 utx/inc_add_54_24_n_376
*421 utx/inc_add_54_24_n_378
*422 utx/inc_add_54_24_n_379
*423 utx/inc_add_54_24_n_381
*424 utx/inc_add_54_24_n_382
*425 utx/inc_add_54_24_n_383
*426 utx/inc_add_54_24_n_387
*427 utx/inc_add_54_24_n_388
*428 utx/inc_add_54_24_n_392
*429 utx/inc_add_54_24_n_395
*430 utx/inc_add_54_24_n_400
*431 utx/inc_add_54_24_n_402
*432 utx/inc_add_54_24_n_405
*433 utx/inc_add_54_24_n_408
*434 utx/inc_add_54_24_n_409
*435 utx/inc_add_54_24_n_410
*436 utx/inc_add_54_24_n_412
*437 utx/inc_add_54_24_n_415
*438 utx/inc_add_54_24_n_416
*439 utx/inc_add_54_24_n_419
*440 utx/inc_add_54_24_n_429
*441 utx/inc_add_54_24_n_437
*442 utx/inc_add_54_24_n_445
*443 utx/inc_add_95_29_n_223
*444 utx/inc_add_95_29_n_226
*445 utx/inc_add_95_29_n_229
*446 utx/inc_add_95_29_n_231
*447 utx/inc_add_95_29_n_233
*448 utx/inc_add_95_29_n_235
*449 utx/inc_add_95_29_n_237
*450 utx/inc_add_95_29_n_239
*451 utx/inc_add_95_29_n_241
*452 utx/inc_add_95_29_n_243
*453 utx/inc_add_95_29_n_245
*454 utx/inc_add_95_29_n_247
*455 utx/inc_add_95_29_n_249
*456 utx/inc_add_95_29_n_251
*457 utx/inc_add_95_29_n_253
*458 utx/inc_add_95_29_n_255
*459 utx/inc_add_95_29_n_257
*460 utx/inc_add_95_29_n_259
*461 utx/inc_add_95_29_n_261
*462 utx/inc_add_95_29_n_263
*463 utx/inc_add_95_29_n_265
*464 utx/inc_add_95_29_n_267
*465 utx/inc_add_95_29_n_269
*466 utx/inc_add_95_29_n_271
*467 utx/inc_add_95_29_n_273
*468 utx/inc_add_95_29_n_275
*469 utx/inc_add_95_29_n_277
*470 utx/inc_add_95_29_n_279
*471 utx/inc_add_95_29_n_281
*472 utx/inc_add_95_29_n_283
*473 utx/n_0
*474 utx/n_1
*475 utx/n_2
*476 utx/n_3
*477 utx/n_5
*478 utx/n_6
*479 utx/n_7
*480 utx/n_8
*481 utx/n_9
*482 utx/n_10
*483 utx/n_11
*484 utx/n_12
*485 utx/n_13
*486 utx/n_14
*487 utx/n_15
*488 utx/n_16
*489 utx/n_17
*490 utx/n_18
*491 utx/n_19
*492 utx/n_20
*493 utx/n_21
*494 utx/n_22
*495 utx/n_23
*496 utx/n_24
*497 utx/n_25
*498 utx/n_26
*499 utx/n_27
*500 utx/n_28
*501 utx/n_29
*502 utx/n_30
*503 utx/n_31
*504 utx/n_32
*505 utx/n_33
*506 utx/n_34
*507 utx/n_35
*508 utx/n_36
*509 utx/n_38
*510 utx/n_39
*511 utx/n_40
*512 utx/n_41
*513 utx/n_42
*514 utx/n_43
*515 utx/n_46
*516 utx/n_47
*517 utx/n_48
*518 utx/n_50
*519 utx/n_51
*520 utx/n_52
*521 utx/n_54
*522 utx/n_56
*523 utx/n_58
*524 utx/n_59
*525 utx/n_60
*526 utx/n_62
*527 utx/n_63
*528 utx/n_64
*529 utx/n_66
*530 utx/n_67
*531 utx/n_68
*532 utx/n_69
*533 utx/n_70
*534 utx/n_71
*535 utx/n_72
*536 utx/n_73
*537 utx/n_74
*538 utx/n_75
*539 utx/n_76
*540 utx/n_78
*541 utx/n_79
*542 utx/n_80
*543 utx/n_81
*544 utx/n_82
*545 utx/n_83
*546 utx/n_84
*547 utx/n_85
*548 utx/n_86
*549 utx/n_87
*550 utx/n_88
*551 utx/n_89
*552 utx/n_90
*553 utx/n_91
*554 utx/n_92
*555 utx/n_93
*556 utx/n_94
*557 utx/n_95
*558 utx/n_96
*559 utx/n_97
*560 utx/n_98
*561 utx/n_99
*562 utx/n_100
*563 utx/n_101
*564 utx/n_102
*565 utx/n_103
*566 utx/n_104
*567 utx/n_105
*568 utx/n_106
*569 utx/n_107
*570 utx/n_108
*571 utx/n_109
*572 utx/n_110
*573 utx/n_111
*574 utx/n_113
*575 utx/n_114
*576 utx/n_115
*577 utx/n_116
*578 utx/n_117
*579 utx/n_118
*580 utx/n_119
*581 utx/n_120
*582 utx/n_121
*583 utx/n_122
*584 utx/n_123
*585 utx/n_124
*586 utx/n_125
*587 utx/n_126
*588 utx/n_127
*589 utx/n_128
*590 utx/n_129
*591 utx/n_130
*592 utx/n_131
*593 utx/n_132
*594 utx/n_133
*595 utx/n_134
*596 utx/n_135
*597 utx/n_136
*598 utx/n_137
*599 utx/n_138
*600 utx/n_139
*601 utx/n_140
*602 utx/n_141
*603 utx/n_142
*604 utx/n_143
*605 utx/n_154
*606 utx/n_155
*607 utx/n_156
*608 utx/n_158
*609 utx/n_160
*610 utx/n_161
*611 utx/n_162
*612 utx/n_164
*613 utx/n_165
*614 utx/n_166
*615 utx/n_168
*616 utx/n_169
*617 utx/n_170
*618 utx/n_172
*619 utx/n_173
*620 utx/n_174
*621 utx/n_176
*622 utx/n_177
*623 utx/n_178
*624 utx/n_180
*625 utx/n_181
*626 utx/n_182
*627 utx/n_184
*628 utx/n_187
*629 utx/n_188
*630 utx/n_189
*631 utx/n_190
*632 utx/n_191
*633 utx/n_192
*634 utx/n_193
*635 utx/n_194
*636 utx/n_195
*637 utx/n_196
*638 utx/n_197
*639 utx/uclk
*640 rtx/FE_OFC0_n_20
*641 rtx/count_reg\[0\]
*642 rtx/count_reg\[1\]
*643 rtx/count_reg\[2\]
*644 rtx/count_reg\[3\]
*645 rtx/count_reg\[5\]
*646 rtx/count_reg\[6\]
*647 rtx/count_reg\[7\]
*648 rtx/count_reg\[8\]
*649 rtx/count_reg\[9\]
*650 rtx/count_reg\[10\]
*651 rtx/count_reg\[11\]
*652 rtx/count_reg\[12\]
*653 rtx/count_reg\[13\]
*654 rtx/count_reg\[14\]
*655 rtx/count_reg\[15\]
*656 rtx/count_reg\[16\]
*657 rtx/count_reg\[17\]
*658 rtx/count_reg\[18\]
*659 rtx/count_reg\[19\]
*660 rtx/count_reg\[21\]
*661 rtx/count_reg\[22\]
*662 rtx/count_reg\[23\]
*663 rtx/count_reg\[24\]
*664 rtx/count_reg\[26\]
*665 rtx/count_reg\[27\]
*666 rtx/count_reg\[28\]
*667 rtx/count_reg\[29\]
*668 rtx/count_reg\[31\]
*669 rtx/counts_reg\[0\]
*670 rtx/counts_reg\[1\]
*671 rtx/counts_reg\[2\]
*672 rtx/counts_reg\[3\]
*673 rtx/counts_reg\[4\]
*674 rtx/counts_reg\[5\]
*675 rtx/counts_reg\[6\]
*676 rtx/counts_reg\[7\]
*677 rtx/counts_reg\[8\]
*678 rtx/counts_reg\[9\]
*679 rtx/counts_reg\[10\]
*680 rtx/counts_reg\[11\]
*681 rtx/counts_reg\[12\]
*682 rtx/counts_reg\[13\]
*683 rtx/counts_reg\[14\]
*684 rtx/counts_reg\[15\]
*685 rtx/counts_reg\[16\]
*686 rtx/counts_reg\[17\]
*687 rtx/counts_reg\[18\]
*688 rtx/counts_reg\[19\]
*689 rtx/counts_reg\[20\]
*690 rtx/counts_reg\[21\]
*691 rtx/counts_reg\[22\]
*692 rtx/counts_reg\[23\]
*693 rtx/counts_reg\[24\]
*694 rtx/counts_reg\[25\]
*695 rtx/counts_reg\[26\]
*696 rtx/counts_reg\[27\]
*697 rtx/counts_reg\[28\]
*698 rtx/counts_reg\[29\]
*699 rtx/counts_reg\[30\]
*700 rtx/counts_reg\[31\]
*701 rtx/done_reg
*702 rtx/rxdata_reg\[0\]
*703 rtx/rxdata_reg\[1\]
*704 rtx/rxdata_reg\[2\]
*705 rtx/rxdata_reg\[3\]
*706 rtx/rxdata_reg\[4\]
*707 rtx/rxdata_reg\[5\]
*708 rtx/rxdata_reg\[6\]
*709 rtx/rxdata_reg\[7\]
*710 rtx/g3212__8780
*711 rtx/g3213__4296
*712 rtx/g3214__3772
*713 rtx/g3215__1474
*714 rtx/g3216__4547
*715 rtx/g3217__9682
*716 rtx/g3219__2683
*717 rtx/g3221__1309
*718 rtx/g3222__6877
*719 rtx/g3233__2900
*720 rtx/g3234__2391
*721 rtx/g3235__7675
*722 rtx/g3236__7118
*723 rtx/g3237__8757
*724 rtx/g3238__1786
*725 rtx/g3239__5953
*726 rtx/g3240__5703
*727 rtx/g3241__7114
*728 rtx/g3242__5266
*729 rtx/g3243__2250
*730 rtx/g3244__6083
*731 rtx/g3245__2703
*732 rtx/g3246__5795
*733 rtx/g3247__7344
*734 rtx/g3248__1840
*735 rtx/g3249__5019
*736 rtx/g3250__1857
*737 rtx/g3251__9906
*738 rtx/g3252__8780
*739 rtx/g3253__4296
*740 rtx/g3254__3772
*741 rtx/g3255__1474
*742 rtx/g3256__4547
*743 rtx/g3257__9682
*744 rtx/g3258__2683
*745 rtx/g3259__1309
*746 rtx/g3260__6877
*747 rtx/g3261__2900
*748 rtx/g3262__2391
*749 rtx/g3264__7118
*750 rtx/g3265__8757
*751 rtx/g3268__1786
*752 rtx/g3269
*753 rtx/g3270__5953
*754 rtx/g3271__5703
*755 rtx/g3272__7114
*756 rtx/g3273__5266
*757 rtx/g3274__2250
*758 rtx/g3275__6083
*759 rtx/g3294__2703
*760 rtx/g3296__5795
*761 rtx/g3311__7344
*762 rtx/g3312__1840
*763 rtx/g3313__5019
*764 rtx/g3314__1857
*765 rtx/g3315__9906
*766 rtx/g3316__8780
*767 rtx/g3319__1474
*768 rtx/g3320__4547
*769 rtx/g3322__2683
*770 rtx/g3323__1309
*771 rtx/g3324__6877
*772 rtx/g3326__2391
*773 rtx/g3327__7675
*774 rtx/g3328__7118
*775 rtx/g3330__1786
*776 rtx/g3331__5953
*777 rtx/g3332__5703
*778 rtx/g3334__5266
*779 rtx/g3335__2250
*780 rtx/g3336__6083
*781 rtx/g3337__2703
*782 rtx/g3340__1840
*783 rtx/g3341__5019
*784 rtx/g3342__1857
*785 rtx/g3343
*786 rtx/g3344__9906
*787 rtx/g3345__8780
*788 rtx/g3347__3772
*789 rtx/g3348__1474
*790 rtx/g3349__4547
*791 rtx/g3350__9682
*792 rtx/g3351__2683
*793 rtx/g3352__1309
*794 rtx/g3353__6877
*795 rtx/g3354__2900
*796 rtx/g3355__2391
*797 rtx/g3356__7675
*798 rtx/g3357__7118
*799 rtx/g3358
*800 rtx/g3359__8757
*801 rtx/g3360__1786
*802 rtx/g2__5953
*803 rtx/inc_add_153_24_g516__5703
*804 rtx/inc_add_153_24_g517__7114
*805 rtx/inc_add_153_24_g518__5266
*806 rtx/inc_add_153_24_g519__2250
*807 rtx/inc_add_153_24_g520__6083
*808 rtx/inc_add_153_24_g521__2703
*809 rtx/inc_add_153_24_g522__5795
*810 rtx/inc_add_153_24_g525__5019
*811 rtx/inc_add_153_24_g526
*812 rtx/inc_add_153_24_g527__1857
*813 rtx/inc_add_153_24_g528__9906
*814 rtx/inc_add_153_24_g529__8780
*815 rtx/inc_add_153_24_g532__1474
*816 rtx/inc_add_153_24_g533__4547
*817 rtx/inc_add_153_24_g534__9682
*818 rtx/inc_add_153_24_g535__2683
*819 rtx/inc_add_153_24_g536__1309
*820 rtx/inc_add_153_24_g539__2900
*821 rtx/inc_add_153_24_g540__2391
*822 rtx/inc_add_153_24_g542__7675
*823 rtx/inc_add_153_24_g543__7118
*824 rtx/inc_add_153_24_g544__8757
*825 rtx/inc_add_153_24_g545__1786
*826 rtx/inc_add_153_24_g546__5953
*827 rtx/inc_add_153_24_g547__5703
*828 rtx/inc_add_153_24_g548__7114
*829 rtx/inc_add_153_24_g549__5266
*830 rtx/inc_add_153_24_g550__2250
*831 rtx/inc_add_153_24_g551__6083
*832 rtx/inc_add_153_24_g553__5795
*833 rtx/inc_add_153_24_g554__7344
*834 rtx/inc_add_153_24_g555__1840
*835 rtx/inc_add_153_24_g556__5019
*836 rtx/inc_add_153_24_g557__1857
*837 rtx/inc_add_153_24_g558__9906
*838 rtx/inc_add_153_24_g559
*839 rtx/inc_add_153_24_g560__8780
*840 rtx/inc_add_153_24_g561
*841 rtx/inc_add_153_24_g562__4296
*842 rtx/inc_add_153_24_g563__3772
*843 rtx/inc_add_153_24_g564__1474
*844 rtx/inc_add_153_24_g565__4547
*845 rtx/inc_add_153_24_g566__9682
*846 rtx/inc_add_153_24_g567__2683
*847 rtx/inc_add_153_24_g568__1309
*848 rtx/inc_add_153_24_g570__2900
*849 rtx/inc_add_153_24_g571
*850 rtx/inc_add_153_24_g572__2391
*851 rtx/inc_add_153_24_g573__7675
*852 rtx/inc_add_153_24_g574__7118
*853 rtx/inc_add_153_24_g575
*854 rtx/inc_add_153_24_g576__8757
*855 rtx/inc_add_190_23_g407__5953
*856 rtx/inc_add_190_23_g409__7114
*857 rtx/inc_add_190_23_g410__5266
*858 rtx/inc_add_190_23_g411__2250
*859 rtx/inc_add_190_23_g412__6083
*860 rtx/inc_add_190_23_g413__2703
*861 rtx/inc_add_190_23_g414__5795
*862 rtx/inc_add_190_23_g415__7344
*863 rtx/inc_add_190_23_g416__1840
*864 rtx/inc_add_190_23_g417__5019
*865 rtx/inc_add_190_23_g418__1857
*866 rtx/inc_add_190_23_g419__9906
*867 rtx/inc_add_190_23_g420__8780
*868 rtx/inc_add_190_23_g421__4296
*869 rtx/inc_add_190_23_g422__3772
*870 rtx/inc_add_190_23_g423__1474
*871 rtx/inc_add_190_23_g424__4547
*872 rtx/inc_add_190_23_g425__9682
*873 rtx/inc_add_190_23_g426__2683
*874 rtx/inc_add_190_23_g427__1309
*875 rtx/inc_add_190_23_g428__6877
*876 rtx/inc_add_190_23_g429__2900
*877 rtx/inc_add_190_23_g430__2391
*878 rtx/inc_add_190_23_g431__7675
*879 rtx/inc_add_190_23_g432__7118
*880 rtx/inc_add_190_23_g433__8757
*881 rtx/inc_add_190_23_g434__1786
*882 rtx/inc_add_190_23_g435__5953
*883 rtx/inc_add_190_23_g436__5703
*884 rtx/inc_add_190_23_g437__7114
*885 rtx/inc_add_190_23_g438__5266
*886 rtx/g2
*887 rtx/uclk_reg
*888 rtx/state_reg\[0\]
*889 rtx/count_reg\[30\]
*890 rtx/count_reg\[20\]
*891 rtx/count_reg\[25\]
*892 rtx/count_reg\[4\]
*893 rtx/g3379
*894 rtx/g3380
*895 rtx/g3381
*896 rtx/g3382
*897 rtx/g3383
*898 rtx/g3384
*899 rtx/g3385
*900 rtx/g3386
*901 rtx/g3387
*902 utx/count_reg\[0\]
*903 utx/count_reg\[1\]
*904 utx/count_reg\[2\]
*905 utx/count_reg\[3\]
*906 utx/count_reg\[5\]
*907 utx/count_reg\[6\]
*908 utx/count_reg\[7\]
*909 utx/count_reg\[8\]
*910 utx/count_reg\[9\]
*911 utx/count_reg\[10\]
*912 utx/count_reg\[11\]
*913 utx/count_reg\[12\]
*914 utx/count_reg\[13\]
*915 utx/count_reg\[14\]
*916 utx/count_reg\[15\]
*917 utx/count_reg\[16\]
*918 utx/count_reg\[17\]
*919 utx/count_reg\[18\]
*920 utx/count_reg\[19\]
*921 utx/count_reg\[21\]
*922 utx/count_reg\[22\]
*923 utx/count_reg\[23\]
*924 utx/count_reg\[24\]
*925 utx/count_reg\[26\]
*926 utx/count_reg\[27\]
*927 utx/count_reg\[28\]
*928 utx/count_reg\[29\]
*929 utx/count_reg\[31\]
*930 utx/counts_reg\[0\]
*931 utx/counts_reg\[1\]
*932 utx/counts_reg\[2\]
*933 utx/counts_reg\[3\]
*934 utx/counts_reg\[4\]
*935 utx/counts_reg\[5\]
*936 utx/counts_reg\[6\]
*937 utx/counts_reg\[7\]
*938 utx/counts_reg\[8\]
*939 utx/counts_reg\[9\]
*940 utx/counts_reg\[10\]
*941 utx/counts_reg\[11\]
*942 utx/counts_reg\[12\]
*943 utx/counts_reg\[13\]
*944 utx/counts_reg\[14\]
*945 utx/counts_reg\[15\]
*946 utx/counts_reg\[16\]
*947 utx/counts_reg\[17\]
*948 utx/counts_reg\[18\]
*949 utx/counts_reg\[19\]
*950 utx/counts_reg\[20\]
*951 utx/counts_reg\[21\]
*952 utx/counts_reg\[22\]
*953 utx/counts_reg\[23\]
*954 utx/counts_reg\[24\]
*955 utx/counts_reg\[25\]
*956 utx/counts_reg\[26\]
*957 utx/counts_reg\[27\]
*958 utx/counts_reg\[28\]
*959 utx/counts_reg\[29\]
*960 utx/counts_reg\[30\]
*961 utx/counts_reg\[31\]
*962 utx/din_reg\[0\]
*963 utx/din_reg\[1\]
*964 utx/din_reg\[2\]
*965 utx/din_reg\[3\]
*966 utx/din_reg\[4\]
*967 utx/din_reg\[5\]
*968 utx/din_reg\[6\]
*969 utx/din_reg\[7\]
*970 utx/state_reg\[1\]
*971 utx/tx_reg
*972 utx/g4476__2250
*973 utx/g4478__2703
*974 utx/g4479__5795
*975 utx/g4480__7344
*976 utx/g4481__1840
*977 utx/g4482__5019
*978 utx/g4483__1857
*979 utx/g4484__9906
*980 utx/g4485__8780
*981 utx/g4486__4296
*982 utx/g4487__3772
*983 utx/g4488__1474
*984 utx/g4489__4547
*985 utx/g4493__9682
*986 utx/g4494__2683
*987 utx/g4495__1309
*988 utx/g4496__6877
*989 utx/g4497__2900
*990 utx/g4498__2391
*991 utx/g4499__7675
*992 utx/g4500__7118
*993 utx/g4501__8757
*994 utx/g4502__1786
*995 utx/g4503__5953
*996 utx/g4504__5703
*997 utx/g4505__7114
*998 utx/g4506__5266
*999 utx/g4507__2250
*1000 utx/g4508__6083
*1001 utx/g4509__2703
*1002 utx/g4510__5795
*1003 utx/g4512__7344
*1004 utx/g4513__1840
*1005 utx/g4514__5019
*1006 utx/g4517__9906
*1007 utx/g4518__8780
*1008 utx/g4519__4296
*1009 utx/g4520__3772
*1010 utx/g4521__1474
*1011 utx/g4523__4547
*1012 utx/g4540__9682
*1013 utx/g4557__2683
*1014 utx/g4558__1309
*1015 utx/g4559__6877
*1016 utx/g4560__2900
*1017 utx/g4561__2391
*1018 utx/g4563__7118
*1019 utx/g4564__8757
*1020 utx/g4565__1786
*1021 utx/g4567__5703
*1022 utx/g4568__7114
*1023 utx/g4569__5266
*1024 utx/g4571__6083
*1025 utx/g4573__5795
*1026 utx/g4575__1840
*1027 utx/g4576__5019
*1028 utx/g4577__1857
*1029 utx/g4579__8780
*1030 utx/g4580__4296
*1031 utx/g4581__3772
*1032 utx/g4584__9682
*1033 utx/g4585__2683
*1034 utx/g4586__1309
*1035 utx/g4587__6877
*1036 utx/g4588__2900
*1037 utx/g4589__2391
*1038 utx/g4590
*1039 utx/g4592__7118
*1040 utx/g4593__8757
*1041 utx/g4594__1786
*1042 utx/g4595__5953
*1043 utx/g4596__5703
*1044 utx/g4597__7114
*1045 utx/g4598__5266
*1046 utx/g4599__2250
*1047 utx/g4600__6083
*1048 utx/g4601__2703
*1049 utx/g4602__5795
*1050 utx/g4603__7344
*1051 utx/g4612__1840
*1052 utx/g4613__5019
*1053 utx/g4614__1857
*1054 utx/g4615__9906
*1055 utx/g4616__8780
*1056 utx/g4617__4296
*1057 utx/g4618__3772
*1058 utx/g4619__1474
*1059 utx/g4620__4547
*1060 utx/g4621__9682
*1061 utx/g4622__2683
*1062 utx/g4623__1309
*1063 utx/g4624__6877
*1064 utx/g4625__2900
*1065 utx/g4626__2391
*1066 utx/g4627__7675
*1067 utx/g4628
*1068 utx/g4630
*1069 utx/g4631__7118
*1070 utx/g2__8757
*1071 utx/g4642__1786
*1072 utx/inc_add_54_24_g516__5953
*1073 utx/inc_add_54_24_g517__5703
*1074 utx/inc_add_54_24_g518__7114
*1075 utx/inc_add_54_24_g519__5266
*1076 utx/inc_add_54_24_g520__2250
*1077 utx/inc_add_54_24_g521__6083
*1078 utx/inc_add_54_24_g522__2703
*1079 utx/inc_add_54_24_g525__1840
*1080 utx/inc_add_54_24_g526
*1081 utx/inc_add_54_24_g527__5019
*1082 utx/inc_add_54_24_g528__1857
*1083 utx/inc_add_54_24_g529__9906
*1084 utx/inc_add_54_24_g532__3772
*1085 utx/inc_add_54_24_g533__1474
*1086 utx/inc_add_54_24_g534__4547
*1087 utx/inc_add_54_24_g535__9682
*1088 utx/inc_add_54_24_g536__2683
*1089 utx/inc_add_54_24_g539__6877
*1090 utx/inc_add_54_24_g540__2900
*1091 utx/inc_add_54_24_g542__2391
*1092 utx/inc_add_54_24_g543__7675
*1093 utx/inc_add_54_24_g544__7118
*1094 utx/inc_add_54_24_g545__8757
*1095 utx/inc_add_54_24_g546__1786
*1096 utx/inc_add_54_24_g547__5953
*1097 utx/inc_add_54_24_g548__5703
*1098 utx/inc_add_54_24_g549__7114
*1099 utx/inc_add_54_24_g550__5266
*1100 utx/inc_add_54_24_g551__2250
*1101 utx/inc_add_54_24_g553__2703
*1102 utx/inc_add_54_24_g554__5795
*1103 utx/inc_add_54_24_g555__7344
*1104 utx/inc_add_54_24_g556__1840
*1105 utx/inc_add_54_24_g557__5019
*1106 utx/inc_add_54_24_g558__1857
*1107 utx/inc_add_54_24_g559
*1108 utx/inc_add_54_24_g560__9906
*1109 utx/inc_add_54_24_g561
*1110 utx/inc_add_54_24_g562__8780
*1111 utx/inc_add_54_24_g563__4296
*1112 utx/inc_add_54_24_g564__3772
*1113 utx/inc_add_54_24_g565__1474
*1114 utx/inc_add_54_24_g566__4547
*1115 utx/inc_add_54_24_g567__9682
*1116 utx/inc_add_54_24_g568__2683
*1117 utx/inc_add_54_24_g570__6877
*1118 utx/inc_add_54_24_g571
*1119 utx/inc_add_54_24_g572__2900
*1120 utx/inc_add_54_24_g573__2391
*1121 utx/inc_add_54_24_g574__7675
*1122 utx/inc_add_54_24_g575
*1123 utx/inc_add_54_24_g576__7118
*1124 utx/inc_add_95_29_g408__1786
*1125 utx/inc_add_95_29_g409__5953
*1126 utx/inc_add_95_29_g410__5703
*1127 utx/inc_add_95_29_g411__7114
*1128 utx/inc_add_95_29_g412__5266
*1129 utx/inc_add_95_29_g413__2250
*1130 utx/inc_add_95_29_g414__6083
*1131 utx/inc_add_95_29_g415__2703
*1132 utx/inc_add_95_29_g416__5795
*1133 utx/inc_add_95_29_g417__7344
*1134 utx/inc_add_95_29_g418__1840
*1135 utx/inc_add_95_29_g419__5019
*1136 utx/inc_add_95_29_g420__1857
*1137 utx/inc_add_95_29_g421__9906
*1138 utx/inc_add_95_29_g422__8780
*1139 utx/inc_add_95_29_g423__4296
*1140 utx/inc_add_95_29_g424__3772
*1141 utx/inc_add_95_29_g425__1474
*1142 utx/inc_add_95_29_g426__4547
*1143 utx/inc_add_95_29_g427__9682
*1144 utx/inc_add_95_29_g428__2683
*1145 utx/inc_add_95_29_g429__1309
*1146 utx/inc_add_95_29_g430__6877
*1147 utx/inc_add_95_29_g431__2900
*1148 utx/inc_add_95_29_g432__2391
*1149 utx/inc_add_95_29_g433__7675
*1150 utx/inc_add_95_29_g434__7118
*1151 utx/inc_add_95_29_g435__8757
*1152 utx/inc_add_95_29_g436__1786
*1153 utx/inc_add_95_29_g437__5953
*1154 utx/inc_add_95_29_g438__5703
*1155 utx/g2
*1156 utx/g3
*1157 utx/g4644
*1158 utx/donetx_reg
*1159 utx/uclk_reg
*1160 utx/count_reg\[30\]
*1161 utx/count_reg\[20\]
*1162 utx/count_reg\[25\]
*1163 utx/count_reg\[4\]
*1164 utx/g4657
*1165 utx/g4658
*1166 utx/g4659
*1167 utx/g4660
*1168 utx/g4661
*1169 utx/g4662
*1170 utx/g4663
*1171 utx/g4664
*1172 Frst
*1173 Fclk
*1174 dintx7
*1175 dintx6
*1176 dintx5
*1177 dintx4
*1178 dintx3
*1179 dintx2
*1180 dintx1
*1181 dintx0
*1182 doutrx7
*1183 doutrx6
*1184 doutrx5
*1185 doutrx4
*1186 doutrx3
*1187 doutrx2
*1188 doutrx1
*1189 doutrx0
*1190 Frx
*1191 Fnewd
*1192 Ftx
*1193 Fdonetx
*1194 Fdonerx


*PORTS

*2 I *C 576.46 865.965
*3 I *C 815.765 865.73
*4 I *C 645.765 865.73
*6 I *C 305.765 865.73
*7 I *C 249.79 815.765
*8 I *C 249.79 730.765
*9 I *C 249.79 645.765
*10 I *C 249.79 560.765
*11 I *C 249.79 475.765
*12 I *C 249.79 390.765
*13 I *C 249.79 305.765
*5 I *C 730.765 865.73
*14 O *C 384.235 249.79
*17 O *C 809.235 249.79
*18 O *C 865.73 809.235
*19 O *C 865.73 724.235
*20 O *C 865.73 639.235
*21 O *C 865.73 554.235
*22 O *C 865.73 469.235
*23 O *C 865.73 384.235
*24 O *C 865.73 299.235
*15 O *C 469.235 249.79
*16 O *C 554.235 249.79


*D_NET *1 0.0868225

*CONN
*I *901:A I *C 646.2 755.12 *L 0.00363 *D ora211d1
*I *900:A I *C 641.72 721.52 *L 0.00363 *D ora211d1
*I *899:A I *C 590.2 743.92 *L 0.00363 *D ora211d1
*I *898:A I *C 594.68 710.32 *L 0.00363 *D ora211d1
*I *897:A I *C 657.96 687.92 *L 0.00363 *D ora211d1
*I *896:A I *C 615.4 681.2 *L 0.00363 *D ora211d1
*I *895:A I *C 600.84 647.6 *L 0.00363 *D ora211d1
*I *894:A I *C 643.4 643.12 *L 0.00363 *D ora211d1
*I *785:I I *C 677 631.36 *L 0.0017 *D inv0d0
*I *784:A1 I *C 590.2 676.72 *L 0.00345 *D an02d1
*I *783:A2 I *C 624.36 721.52 *L 0.00379 *D an02d0
*I *782:A2 I *C 656.84 721.52 *L 0.00379 *D an02d0
*I *781:A2 I *C 646.2 743.92 *L 0.00379 *D an02d0
*I *780:A2 I *C 626.04 759.6 *L 0.00379 *D an02d0
*I *779:A1 I *C 608.68 755.12 *L 0.00345 *D an02d0
*I *778:A2 I *C 576.2 737.2 *L 0.00379 *D an02d0
*I *777:A2 I *C 579 721.52 *L 0.00379 *D an02d0
*I *776:A1 I *C 609.8 714.8 *L 0.00345 *D an02d1
*I *775:A2 I *C 575.08 710.32 *L 0.00379 *D an02d0
*I *774:A1 I *C 588.52 699.12 *L 0.00345 *D an02d1
*I *773:A1 I *C 619.32 703.6 *L 0.00345 *D an02d1
*I *771:A1 I *C 656.28 710.32 *L 0.00345 *D an02d1
*I *770:A1 I *C 619.32 687.92 *L 0.00345 *D an02d0
*I *769:A1 I *C 637.24 710.32 *L 0.00345 *D an02d1
*I *768:A1 I *C 637.24 687.92 *L 0.00345 *D an02d1
*I *767:A1 I *C 640.04 670 *L 0.00345 *D an02d1
*I *766:A1 I *C 662.44 654.32 *L 0.00345 *D an02d1
*I *765:A1 I *C 633.32 665.52 *L 0.00345 *D an02d1
*I *764:A1 I *C 596.36 665.52 *L 0.00345 *D an02d1
*I *763:A1 I *C 635 625.2 *L 0.00345 *D an02d1
*I *762:A1 I *C 617.08 654.32 *L 0.00345 *D an02d1
*I *761:A2 I *C 677.56 687.92 *L 0.00379 *D an02d0
*I *759:B1 I *C 677.56 619.6 *L 0.00486 *D oai22d1
*I *640:Z O *C 626.6 710.88 *L 0 *D buffd1

*CAP
1 *901:A 6.96e-05
2 *900:A 6.96e-05
3 *899:A 6.96e-05
4 *898:A 6.96e-05
5 *897:A 6.96e-05
6 *896:A 6.96e-05
7 *895:A 6.96e-05
8 *894:A 6.96e-05
9 *785:I 3.73e-05
10 *784:A1 7.462e-05
11 *783:A2 6.96e-05
12 *782:A2 6.96e-05
13 *781:A2 6.96e-05
14 *780:A2 6.96e-05
15 *779:A1 0.00117479
16 *778:A2 6.96e-05
17 *777:A2 6.96e-05
18 *776:A1 3.79e-05
19 *775:A2 6.96e-05
20 *774:A1 0.00025612
21 *773:A1 6.96e-05
22 *771:A1 6.96e-05
23 *770:A1 6.96e-05
24 *769:A1 0.0001119
25 *768:A1 0.00011369
26 *767:A1 0.00010132
27 *766:A1 6.96e-05
28 *765:A1 6.96e-05
29 *764:A1 6.96e-05
30 *763:A1 7.462e-05
31 *762:A1 3.73e-05
32 *761:A2 6.96e-05
33 *759:B1 6.96e-05
34 *640:Z 6.96e-05
35 *1:34 0.00138957
36 *1:35 0.00138957
37 *1:36 0.0005104
38 *1:37 0.00162584
39 *1:38 0.00070108
40 *1:39 0.00070108
41 *1:40 0.00071316
42 *1:41 0.00071316
43 *1:42 0.00173846
44 *1:43 0.00076178
45 *1:44 6.938e-05
46 *1:45 6.938e-05
47 *1:46 0.00077975
48 *1:47 0.00036401
49 *1:48 0.00043151
50 *1:49 0.00143667
51 *1:50 0.00136704
52 *1:51 0.00038971
53 *1:52 0.00035965
54 *1:53 0.00035965
55 *1:54 0.00032433
56 *1:55 0.00032433
57 *1:56 8.607e-05
58 *1:57 8.607e-05